39
Energy =
Pt   -0.0117274   -0.5852577   -0.6738678 
N     1.2788029    0.1944654    0.6199508 
N    -1.3085488    0.3513231    0.6726255 
Cl   -3.1829652    2.6655447    1.7621374 
Cl   -1.9455614   -1.4593540   -1.6161049 
Cl    2.1853816    2.3680374   -1.1870211 
Cl    2.8461130   -1.9737465    1.9807392 
C     1.2914313   -1.6732626   -1.8389198 
H     1.0180148   -2.7379459   -1.8247975 
C     0.7486074    0.6283998    1.7441713 
C     1.5567940    1.1657807    2.8728404 
H     2.5603923    1.4482235    2.5423300 
H     1.6664525    0.3944804    3.6507229 
H     1.0663934    2.0327553    3.3298524 
C    -0.7279832    0.5668697    1.8343503 
H    -0.8319803   -0.0572801    3.8545883 
H    -1.3555323    1.6147994    3.6163634 
H    -2.4217011    0.2840883    3.1239362 
C    -1.3795163    0.6098339    3.1736820 
C    -2.6780645    0.3510655    0.3629052 
C    -3.6463256    1.2682610    0.8488862 
C    -4.9934606    1.1518762    0.4903734 
H    -5.7062234    1.8655050    0.8971828 
C    -5.4043069    0.1699874   -0.4027359 
H    -6.4549553    0.0837321   -0.6717049 
C    -4.4598533   -0.6597209   -1.0172483 
H    -4.7512560   -1.3720102   -1.7859912 
C    -3.1347598   -0.5246864   -0.6536313 
C     2.6852834    0.2216317    0.3892252 
C     3.2275360    1.1689255   -0.4939506 
C     3.5232483   -0.7641010    0.9351673 
C     4.5859759    1.1505116   -0.8053282 
H     4.9891871    1.8993055   -1.4830041 
C     5.4034221    0.1694924   -0.2440755 
H     6.4633021    0.1498468   -0.4899997 
C     4.8821521   -0.7899229    0.6235165 
H     5.5151135   -1.5617097    1.0548164 
H     2.3238969   -1.5739666   -1.4836318 
H     1.2244601   -1.3051317   -2.8736893 
