90
Energy =
O     3.8299063    3.0782068    0.1890731
C     2.9314997    2.1659991   -0.5259625
C     3.7829574    0.9002644   -0.7815963
N     4.9769609    1.1227109    0.0722040
C     4.9181033    2.3346162    0.5170527
N     5.8449822    2.9951611    1.3095443
C     7.0796451    2.4325743    1.5890601
N     7.4772858    1.2502850    1.2767055
C     8.8975716    1.1401424    1.6696120
C     9.1034342    2.3873699    2.5605059
O     7.9474628    3.2425561    2.2498995
Cu    6.4812221   -0.1538737    0.2064478
C     6.0532788    5.4328186    0.7782088
C     5.5599494    4.3835474    1.7682466
C     4.2259013    0.6426367   -2.2069739
C     4.3414022   -0.6787207   -2.6539477
C     4.8069404   -0.9543194   -3.9413563
C     5.1671309    0.0933179   -4.7935828
C     5.0714672    1.4155925   -4.3484323
C     4.6074924    1.6863428   -3.0595132
C     9.1530691   -0.2158139    2.2848220
C     9.9509460   -1.1419186    1.6064345
C    10.0950491   -2.4446455    2.0893591
C     9.4330738   -2.8346434    3.2550083
C     8.6370894   -1.9118611    3.9418324
C     8.4972606   -0.6118507    3.4571842
H     2.0777453    1.9621080    0.1309051
H     2.5916401    2.6795326   -1.4303761
H     3.2680511    0.0090313   -0.4033076
H     9.4947875    1.2248048    0.7519628
H    10.0046271    2.9573673    2.3188708
H     9.0727069    2.1638095    3.6347478
H     5.8019399    6.4367423    1.1415339
H     7.1419302    5.3741842    0.6640715
H     5.5808547    5.2967975   -0.2020564
H     4.4794619    4.4544089    1.9175528
H     6.0421008    4.5015497    2.7429954
H     4.0682889   -1.4898270   -1.9785578
H     4.8815000   -1.9860952   -4.2831063
H     5.5184406   -0.1175293   -5.8028588
H     5.3574461    2.2350856   -5.0063016
H     4.5461430    2.7209983   -2.7188362
H    10.4443925   -0.8401857    0.6818444
H    10.7259326   -3.1546295    1.5556826
H     9.5435109   -3.8498309    3.6337429
H     8.1270212   -2.2078530    4.8583761
H     7.8501596    0.0934244    3.9803904
C:     5.5369583   -2.3616604    2.1545144
H:     5.7976439   -1.7474982    3.0267836
C:     5.9172237   -3.8470375    2.4024098
H:     6.4848257   -3.9845665    3.3292452
H:     5.0678570   -4.5366776    2.3701767
O:     6.8071403   -4.1923277    1.2902153
C:     7.0389677   -3.0275245    0.6362748
N:     7.9053472   -3.1412258   -0.4367305
C:     8.6275059   -4.4167792   -0.6232323
H:     8.9478017   -4.7821980    0.3549262
H:     7.9837758   -5.1660463   -1.0980134
H:     9.5017742   -4.2382949   -1.2493766
C:     8.0475556   -2.1212474   -1.3631138
N:     7.5443887   -0.9351694   -1.3039823
C:     8.0232326   -0.1899904   -2.4975038
C:     8.8849228    0.9714634   -2.0421349
C:     8.2517332    2.1797670   -1.7236386
C:     8.9833815    3.2550222   -1.2188922
H:     8.4781884    4.1891158   -0.9770157
C:    10.3639055    3.1365836   -1.0331270
H:    10.9396625    3.9794937   -0.6533515
C:    11.0042941    1.9345395   -1.3459109
H:    12.0796029    1.8354725   -1.2041569
H:     7.1722859    2.2592861   -1.8587073
C:    10.2652892    0.8554437   -1.8394953
H:    10.7780110   -0.0808514   -2.0627393
H:     7.1436190    0.2076405   -3.0162408
C:     8.6949961   -1.2914248   -3.3469809
H:     9.6991939   -1.0529718   -3.7086065
H:     8.0621458   -1.6002682   -4.1876691
O:     8.8081691   -2.4397646   -2.4417077
C:     4.0980408   -2.0908455    1.7643877
C:     3.3768600   -1.0685080    2.3880282
H:     3.8452216   -0.4948959    3.1882372
C:     2.0689848   -0.7755599    1.9906636
H:     1.5136622    0.0157566    2.4929048
C:     1.4735497   -1.5025737    0.9572336
H:     0.4520947   -1.2824014    0.6502292
C:     2.1928116   -2.5199034    0.3198425
H:     1.7332155   -3.0884128   -0.4874710
C:     3.4975136   -2.8079415    0.7202542
H:     4.0570100   -3.5948613    0.2118770
N:     6.4311121   -1.9673593    1.0451675
