47
Energy =
O     3.9349076    2.5294058   -0.1817869 
C     2.7889143    1.6103144   -0.2589816 
C     3.3685782    0.2542937    0.1813332 
N     4.6144136    0.6582501    0.9164067 
C     4.8641366    1.8726029    0.5478749 
N     6.0454489    2.5582983    0.7778973 
C     7.2558080    1.8967335    0.8196415 
N     7.5001086    0.6424466    0.5604978 
C     8.9718947    0.4446492    0.6192510 
C     9.4507096    1.7597734    1.2768038 
O     8.3050124    2.6726268    1.1306239 
H     5.0074578    4.3315843    1.1187380 
H     6.7043814    4.3650298    1.6108414 
H    10.9897696   -1.2869477    0.0332267 
H     2.0229729    1.9722767    0.4366647 
H     2.4070124    1.6549847   -1.2825597 
H     2.6940215   -0.2653616    0.8724808 
H     9.3386237    0.3706014   -0.4160284 
H    10.3086042    2.2248080    0.7856288 
H     9.6403033    1.6439700    2.3512403 
H    11.6810960   -3.3051428    1.2994743 
H    10.4372978   -3.9820767    3.3454312 
H     8.5008359   -2.6259810    4.1241960 
Cu    6.1540550   -0.6878618    0.2219309 
C     6.3910732    4.6782682   -0.5242661 
C     6.0207488    4.0535578    0.8149038 
H     7.8181857   -0.5965789    2.8672191 
H     4.2987020   -2.2397960    0.6380779 
H     5.9706042   -3.4604149   -0.7741704 
H     6.2703849   -2.8105031   -3.1685303 
H     4.9160200   -0.9593891   -4.1203120 
H     3.5264243    0.4614658   -2.6511705 
C     3.9074257   -0.6999810   -0.8751358 
C     4.5811421   -1.8527438   -0.3463148 
C     5.4716442   -2.5769532   -1.1681054 
C     5.6004352   -2.2365236   -2.5315338 
C     4.8467975   -1.1965993   -3.0600635 
C     4.0300953   -0.4058883   -2.2270778 
C     9.3655039   -0.8042001    1.3727068 
C    10.4479960   -1.5745410    0.9355239 
C    10.8360358   -2.7123059    1.6462892 
C    10.1373177   -3.0924843    2.7936918 
C     9.0501622   -2.3311050    3.2311267 
C     8.6680904   -1.1894183    2.5263858 
H     6.3505688    5.7712640   -0.4431098 
H     7.4091421    4.3998134   -0.8200872 
H     5.6918889    4.3657926   -1.3082444 
