122
Energy =
Ru    1.1921914    1.4846114    3.4474503 
Cl    2.6100937    2.4441780    4.9682512 
H     5.3144498    9.1063907   -0.3699469 
C     1.1684514    2.6547563    2.0576371 
Cl   -0.7742069    0.3428591    3.2175041 
P     2.4392921   -0.3540535    3.1578523 
C     1.6022221    3.0477815    0.7378676 
H     5.5313939    8.4932469    1.2685389 
C     0.8269226    3.9993434    0.0317240 
C     1.1948723    4.4301497   -1.2368404 
C     2.3578857    3.9477053   -1.8570021 
C     3.1312073    3.0033291   -1.1615097 
C     2.7620067    2.5622482    0.1018786 
C     2.7431744    4.4734214   -3.2215793 
P     4.4253286    5.2074218   -3.3384095 
H     8.3465431    1.1714623   -4.6922190 
H     3.4886028    8.2990393   -8.0967419 
C     5.6999521    3.8718002   -3.5230377 
C     8.0609662    3.2704586   -4.2089413 
C     6.9674839    4.3466434   -4.2734378 
C     5.1853902    2.5534834   -4.1447578 
C     6.2816995    1.4782066   -4.0903264 
C     7.5674079    1.9393148   -4.7856075 
H     5.9842133    3.6637771   -2.4758723 
H     8.3688919    3.1303868   -3.1602636 
H     7.4046106    7.7659606   -0.2536715 
H     5.2127568    6.5944142   -7.5168178 
H     2.2908991    7.4599446   -7.1122502 
C     4.7652356    6.0695363   -1.7507618 
C     3.9505632    7.5092766    0.1467604 
H     6.5197060    6.3914874    0.4086826 
C     1.9620465   -1.3726925    1.6747936 
C     1.9754347   -0.6061307    0.3459547 
C     1.3189990   -1.4358265   -0.7665763 
C     1.9683171   -2.8176110   -0.9105572 
C     1.9805241   -3.5642466    0.4293203 
C     2.6722930   -2.7316745    1.5197810 
C     4.2821277   -0.0548420    3.3093085 
C     4.8230843    1.1251199    2.4903863 
C     6.2425008    1.4914783    2.9458473 
C     7.1928362    0.2915188    2.8556307 
C     6.6325262   -0.9174286    3.6154582 
C     5.2134607   -1.2703446    3.1399452 
C     2.1697165   -1.5436920    4.5933074 
C     2.2555039   -0.8411205    5.9641044 
C     2.2437599   -1.8667434    7.1053600 
C     1.0014561   -2.7609086    7.0401338 
C     0.8861481   -3.4356679    5.6691737 
C     0.8964472   -2.4064053    4.5275232 
H     0.3978353    3.3520574    2.4813667 
H    -0.0785343    4.3942789    0.4918367 
H     0.5684979    5.1571343   -1.7554087 
H     4.0422779    2.6001781   -1.6023427 
H     3.3800633    1.8414963    0.6211769 
H     8.9482012    3.6229586   -4.7516973 
H     6.7136503    4.5350237   -5.3280967 
H     7.3456393    5.2923991   -3.8653327 
H     4.8958153    2.7276829   -5.1921771 
H     4.2890980    2.1866359   -3.6286237 
H     5.9042795    0.5538261   -4.5471466 
H     6.4973302    1.2419909   -3.0352052 
H     7.3743346    2.0601923   -5.8640307 
C     4.4807943    6.2885547   -4.8236608 
C     3.8267188    8.4577822   -5.9580828 
C     3.7119873    7.6174949   -4.6757355 
C     4.0166257    5.5083039   -6.0764372 
C     4.1479636    6.3730767   -7.3386065 
C     3.3669756    7.6832659   -7.1963197 
H     5.5510590    6.5264368   -4.9390317 
H     4.8766129    8.7659258   -6.0889220 
H     3.2430572    9.3798262   -5.8364496 
H     2.6498212    7.4162174   -4.4632834 
H     4.1055094    8.1916717   -3.8291065 
H     2.9621018    5.2163998   -5.9537196 
H     4.5925526    4.5812266   -6.1946847 
H     3.7963629    5.8006046   -8.2072570 
C     3.6566922    7.0396794   -1.2852710 
C     6.1534216    6.7399512   -1.6912849 
C     6.4321752    7.2559142   -0.2692059 
C     5.3233660    8.1856030    0.2353810 
H     4.7628541    5.2162120   -1.0469600 
H     3.9137520    6.6425305    0.8257756 
H     3.1586465    8.1969101    0.4717719 
H     3.6227706    7.9150387   -1.9462533 
H     2.6723235    6.5594913   -1.3258358 
H     6.1865448    7.5783635   -2.4055451 
H     6.9449274    6.0365944   -1.9808926 
H     0.9000537   -1.5579258    1.9160003 
H     3.0162093   -0.3726274    0.0651272 
H     1.4413910    0.3437667    0.4608034 
H     0.2505291   -1.5575736   -0.5271195 
H     1.3654822   -0.8851078   -1.7174586 
H     3.0071160   -2.6977509   -1.2629508 
H     1.4448973   -3.4091360   -1.6745088 
H     2.4870438   -4.5342311    0.3258406 
H     0.9454732   -3.7800533    0.7401361 
H     4.3236231    0.2618455    4.3659768 
H     3.7185504   -2.5678774    1.2265370 
H     2.6936853   -3.2874962    2.4653437 
H     4.1610514    1.9925407    2.5969523 
H     4.8507342    0.8380871    1.4247898 
H     6.1908590    1.8488136    3.9865286 
H     6.6232225    2.3320295    2.3466314 
H     8.1871013    0.5578992    3.2406903 
H     7.3297506    0.0160536    1.7957775 
H     6.6043000   -0.6926213    4.6936762 
H     7.2917086   -1.7881073    3.4917556 
H     4.8448510   -2.1481923    3.6854478 
H     5.2549374   -1.5530861    2.0777809 
H     3.0369931   -2.2227599    4.5152736 
H     1.3922451   -0.1656222    6.0777325 
H     3.1458720   -0.2042465    6.0358369 
H     3.1505301   -2.4917322    7.0390837 
H     2.2944676   -1.3426386    8.0699309 
H     1.0283018   -3.5156413    7.8386839 
H     0.1041449   -2.1460715    7.2164310 
H     1.7267177   -4.1373436    5.5344202 
H    -0.0335307   -4.0342717    5.6100703 
H     0.8116384   -2.9306945    3.5673259 
H     0.0143396   -1.7576237    4.6061744 
H     2.0519349    5.2696910   -3.5308006 
H     2.6899752    3.6972823   -3.9987472 
