52
Energy =
H     1.3837524    2.8802615    8.3156235 
H     1.5361244    1.3402796    7.4668358 
P     0.7095907    3.2836738    5.3863724 
H    -1.0576451    2.9612853    3.8559911 
H    -1.7383157    5.4413924    5.5154780 
H    -2.3587108    3.8247457    5.8281630 
H    -3.9938237    5.1581378    4.5042926 
H    -3.4305657    3.7587188    3.5870357 
H    -3.4450085    5.7750470    2.1247272 
H    -2.4261536    6.6431362    3.2751840 
H    -1.6191528    4.1390670    1.6906935 
H    -1.0247699    5.7791685    1.4152362 
H     0.6298948    4.4337352    2.7363621 
C    -0.7428032    3.8998291    4.3489590 
C    -1.9920973    4.4873256    5.0321255 
C    -3.1123607    4.7283091    4.0060685 
C    -2.6435820    5.6419692    2.8661098 
C    -1.3788833    5.0896658    2.1958440 
C    -0.2667769    4.8416198    3.2260838 
C     1.5075864    4.7817723    6.1979808 
C     0.6138447    5.8393003    6.8641246 
C     1.4534981    6.8723385    7.6326664 
C     2.4880791    7.5385299    6.7160908 
C     3.3762524    6.4925895    6.0292023 
C     2.5366951    5.4559976    5.2672091 
C    -0.1848644    2.5012693    6.8435671 
C    -1.0373873    1.3108948    6.3587977 
C    -1.7555476    0.6125468    7.5225696 
C    -0.7615300    0.1501644    8.5940452 
C     0.0931825    1.3236042    9.0866747 
C     0.8072070    2.0307518    7.9244377 
H     0.0271868    5.8073508    3.6676068 
H     2.0978082    4.2991286    6.9993409 
H     1.9744452    6.3664016    8.4629466 
H    -0.1172668    5.3677316    7.5364503 
H     0.0356365    6.3620844    6.0867029 
H     0.7986300    7.6297692    8.0887699 
H     3.1027998    8.2513154    7.2848320 
H     1.9590666    8.1248350    5.9456289 
H     4.0861420    6.9815901    5.3456492 
H     3.9807779    5.9740131    6.7923226 
H     3.1839096    4.6947764    4.8084760 
H     2.0148365    5.9599095    4.4397037 
H    -0.8608404    3.2438456    7.3022365 
H    -1.7764257    1.6364828    5.6133732 
H    -0.3788460    0.5882537    5.8480473 
H    -2.4767793    1.3144487    7.9745623 
H    -2.3409820   -0.2389103    7.1460063 
H    -0.1016109   -0.6223363    8.1648447 
H    -1.2912365   -0.3201670    9.4351529 
H     0.8325154    0.9791489    9.8247491 
H    -0.5547452    2.0492111    9.6063267 
