48
Energy =
Au    0.0443356    0.8678726    0.0001876 
C     0.2218834   -1.0745880    0.0018212 
N    -0.7916495   -1.9713187    0.0021835 
C    -0.2650074   -3.2551192    0.0036256 
C     1.0940415   -3.1315902    0.0041074 
N     1.3804714   -1.7738391    0.0030195 
H    -0.9079904   -4.1245628    0.0043099 
H     1.8831282   -3.8711894    0.0050004 
C    -2.1969266   -1.6320241    0.0010195 
C    -2.8417824   -1.4670848    1.2358638 
C    -4.2018581   -1.1454787    1.2046816 
C    -4.8994164   -0.9912993   -0.0013477 
C    -4.2000673   -1.1469840   -1.2061978 
C    -2.8400032   -1.4686329   -1.2350375 
C    -2.0907826   -1.6169291    2.5328081 
H    -1.6777951   -2.6288054    2.6474169 
H    -1.2431317   -0.9177574    2.5847950 
H    -2.7420995   -1.4207286    3.3900313 
H    -4.7305345   -1.0117724    2.1490831 
C    -6.3751046   -0.6928042   -0.0028736 
H    -6.9523607   -1.6288048   -0.0091841 
H    -6.6753068   -0.1304812    0.8890314 
H    -6.6714000   -0.1211484   -0.8901936 
H    -4.7273916   -1.0144786   -2.1515084 
C    -2.0870886   -1.6201874   -2.5306570 
H    -1.6737794   -2.6321568   -2.6432426 
H    -2.7371436   -1.4252455   -3.3891177 
H    -1.2394382   -0.9209936   -2.5823836 
C     2.7005871   -1.1840518    0.0022902 
C     3.3029878   -0.9020072    1.2366734 
C     4.5802825   -0.3333322    1.2055704 
C     5.2370052   -0.0523216    0.0002402 
C     4.5793562   -0.3373165   -1.2049520 
C     3.3032867   -0.9060688   -1.2340359 
C     2.5934452   -1.1889128    2.5333752 
H     2.3756873   -2.2600566    2.6477491 
H     3.1980885   -0.8764625    3.3903415 
H     1.6314812   -0.6588589    2.5858473 
H     5.0746018   -0.1033335    2.1500475 
C     6.6301187    0.5190589   -0.0056634 
H     7.3702208   -0.2828466   -0.1419880 
H     6.8649470    1.0270396    0.9366148 
H     6.7705058    1.2309442   -0.8281065 
H     5.0736751   -0.1097782   -2.1501217 
C     2.5930116   -1.1982808   -2.5291363 
H     2.3761253   -2.2700567   -2.6392959 
H     3.1965512   -0.8886322   -3.3878896 
H     1.6305381   -0.6692611   -2.5827808 
