10
Energy =
C    -0.9429196    5.2130867   -0.0037369 
H    -1.4440102    5.6045645    0.8904616 
H     0.1180824    5.4686309   -0.0046787 
H    -1.4452145    5.6030048   -0.8979416 
C    -2.4778040    3.2172206   -0.0008180 
H    -2.4540691    2.1258940   -0.0001297 
H    -2.9848226    3.6016574   -0.8947180 
H    -2.9832560    3.6028173    0.8934621 
N    -0.0703802    2.9535779   -0.0024901 
N    -1.0260207    3.6881774   -0.0023666 
