42
Energy =
C     0.4422545    3.1274004    0.1655776 
C     1.9195747    1.6056591    1.3346422 
C     0.5427889    2.3539451   -1.0225094 
C     1.1643863    2.7853785    1.3077469 
H     0.1664761    2.7613386   -1.9605662 
H     1.1281949    3.4240711    2.1880732 
H    -0.1675037    4.0291368    0.1558628 
C     2.6538277   -0.5018253    0.2649644 
N     3.6915355   -0.9228536   -0.5029633 
N     2.3460455   -1.5239442    1.1047126 
C     4.0327328   -2.2159192   -0.1472426 
H     4.8418746   -2.7482514   -0.6282203 
C     3.1939083   -2.5893236    0.8613185 
H     3.1276546   -3.5142890    1.4176171 
C     1.2064838   -1.5302187    2.0241121 
H     1.4694027   -1.0405783    2.9671488 
H     0.9206232   -2.5681524    2.2142891 
H     0.3740469   -0.9930463    1.5431282 
C     4.3713324   -0.1220169   -1.5218278 
H     4.1774874    0.9365185   -1.3273558 
H     4.0027305   -0.3843503   -2.5196251 
H     5.4470987   -0.3126757   -1.4651883 
C     1.9680460    0.7795801    0.2030131 
C     1.3238248    1.1693896   -1.0179863 
H     1.5726557    0.6583681   -1.9490610 
Pd   -0.7111314    0.6010009   -0.5795036 
H     2.4598975    1.3197937    2.2359400 
C    -2.4313725   -0.3949090   -0.1359513 
N    -3.2207814   -0.2514985    0.9769369 
N    -3.1141808   -1.3090081   -0.8953688 
C    -4.3550627   -1.0415216    0.9038566 
H    -5.1062042   -1.0579672    1.6825137 
C    -4.2862446   -1.7124201   -0.2793201 
H    -4.9637344   -2.4279348   -0.7261518 
C    -2.9253230    0.6500081    2.0836777 
H    -3.6909517    1.4319121    2.1522558 
H    -1.9522937    1.1138664    1.8867518 
H    -2.8899222    0.0926360    3.0273247 
C    -2.6777288   -1.7798275   -2.2042221 
H    -1.7176214   -1.3025201   -2.4289291 
H    -3.4101189   -1.5013758   -2.9709346 
H    -2.5549430   -2.8693493   -2.1948010 
